<?xml version="1.0" encoding="UTF-8"?>

<!-- generated on 2021-10-20 16:01:04 by Eclipse SUMO netedit Version 1.10.0
<configuration xmlns:xsi="http://www.w3.org/2001/XMLSchema-instance" xsi:noNamespaceSchemaLocation="http://sumo.dlr.de/xsd/netconvertConfiguration.xsd">

    <output>
        <output-file value="C:\Users\com\Desktop\SUMO\vec_test1\2.net.xml"/>
    </output>

    <processing>
        <offset.disable-normalization value="true"/>
    </processing>

    <junctions>
        <no-turnarounds value="true"/>
    </junctions>

    <report>
        <aggregate-warnings value="5"/>
    </report>

</configuration>
-->

<net version="1.9" junctionCornerDetail="5" limitTurnSpeed="5.50" xmlns:xsi="http://www.w3.org/2001/XMLSchema-instance" xsi:noNamespaceSchemaLocation="http://sumo.dlr.de/xsd/net_file.xsd">

    <location netOffset="0.00,0.00" convBoundary="2.18,25.09,50.82,59.60" origBoundary="10000000000.00,10000000000.00,-10000000000.00,-10000000000.00" projParameter="!"/>

    <edge id=":gneJ0_0" function="internal">
        <lane id=":gneJ0_0_0" index="0" speed="3.91" length="2.48" shape="2.22,58.72 1.55,58.60 1.08,58.29 0.79,57.80 0.70,57.13"/>
    </edge>
    <edge id=":gneJ1_0" function="internal">
        <lane id=":gneJ1_0_0" index="0" speed="3.90" length="2.59" shape="0.58,25.09 0.68,24.39 0.98,23.89 1.48,23.59 2.19,23.49"/>
    </edge>
    <edge id=":gneJ2_0" function="internal">
        <lane id=":gneJ2_0_0" index="0" speed="4.01" length="1.73" shape="32.46,23.61 32.90,23.66 33.28,23.82 33.60,24.08 33.86,24.45"/>
    </edge>
    <edge id=":gneJ3_0" function="internal">
        <lane id=":gneJ3_0_0" index="0" speed="3.98" length="3.84" shape="52.24,58.85 52.64,59.93 52.53,60.68 51.90,61.10 50.74,61.20"/>
    </edge>

    <edge id="gneE0" from="gneJ0" to="gneJ1" priority="-1">
        <lane id="gneE0_0" index="0" speed="13.89" length="32.04" shape="0.70,57.13 0.58,25.09"/>
    </edge>
    <edge id="gneE1" from="gneJ1" to="gneJ2" priority="-1">
        <lane id="gneE1_0" index="0" speed="13.89" length="30.27" shape="2.19,23.49 32.46,23.61"/>
    </edge>
    <edge id="gneE2" from="gneJ2" to="gneJ3" priority="-1">
        <lane id="gneE2_0" index="0" speed="13.89" length="38.99" shape="33.86,24.45 52.24,58.85"/>
    </edge>
    <edge id="gneE3" from="gneJ3" to="gneJ0" priority="-1">
        <lane id="gneE3_0" index="0" speed="13.89" length="48.59" shape="50.74,61.20 2.22,58.72"/>
    </edge>

    <junction id="gneJ0" type="priority" x="2.30" y="57.13" incLanes="gneE3_0" intLanes=":gneJ0_0_0" shape="2.13,60.32 2.30,57.13 -0.90,57.14 -0.56,58.84 -0.14,59.45 0.45,59.90 1.21,60.19">
        <request index="0" response="0" foes="0" cont="0"/>
    </junction>
    <junction id="gneJ1" type="priority" x="2.18" y="25.09" incLanes="gneE0_0" intLanes=":gneJ1_0_0" shape="-1.02,25.10 2.18,25.09 2.19,21.89 0.40,22.24 -0.22,22.69 -0.67,23.31 -0.94,24.12">
        <request index="0" response="0" foes="0" cont="0"/>
    </junction>
    <junction id="gneJ2" type="priority" x="32.45" y="25.21" incLanes="gneE1_0" intLanes=":gneJ2_0_0" shape="32.45,25.21 35.27,23.70 34.56,22.76 34.12,22.43 33.62,22.20 33.07,22.06 32.46,22.01">
        <request index="0" response="0" foes="0" cont="0"/>
    </junction>
    <junction id="gneJ3" type="priority" x="50.82" y="59.60" incLanes="gneE2_0" intLanes=":gneJ3_0_0" shape="53.65,58.09 50.82,59.60 50.66,62.80 53.51,62.40 54.23,61.76 54.50,60.83 54.30,59.61">
        <request index="0" response="0" foes="0" cont="0"/>
    </junction>

    <connection from="gneE0" to="gneE1" fromLane="0" toLane="0" via=":gneJ1_0_0" dir="l" state="M"/>
    <connection from="gneE1" to="gneE2" fromLane="0" toLane="0" via=":gneJ2_0_0" dir="l" state="M"/>
    <connection from="gneE2" to="gneE3" fromLane="0" toLane="0" via=":gneJ3_0_0" dir="l" state="M"/>
    <connection from="gneE3" to="gneE0" fromLane="0" toLane="0" via=":gneJ0_0_0" dir="l" state="M"/>

    <connection from=":gneJ0_0" to="gneE0" fromLane="0" toLane="0" dir="l" state="M"/>
    <connection from=":gneJ1_0" to="gneE1" fromLane="0" toLane="0" dir="l" state="M"/>
    <connection from=":gneJ2_0" to="gneE2" fromLane="0" toLane="0" dir="l" state="M"/>
    <connection from=":gneJ3_0" to="gneE3" fromLane="0" toLane="0" dir="l" state="M"/>

</net>
