<?xml version="1.0" encoding="UTF-8"?>

<!-- generated on 2021-10-20 16:01:06 by Eclipse SUMO netedit Version 1.10.0
<configuration xmlns:xsi="http://www.w3.org/2001/XMLSchema-instance" xsi:noNamespaceSchemaLocation="http://sumo.dlr.de/xsd/netconvertConfiguration.xsd">

    <output>
        <output-file value="C:\Users\com\Desktop\SUMO\vec_test1\2.net.xml"/>
    </output>

    <processing>
        <offset.disable-normalization value="true"/>
    </processing>

    <junctions>
        <no-turnarounds value="true"/>
    </junctions>

    <netedit>
        <route-files value="C:\Users\com\Desktop\SUMO\vec_test1\2.rou.xml"/>
    </netedit>

    <report>
        <aggregate-warnings value="5"/>
    </report>

</configuration>
-->

<routes xmlns:xsi="http://www.w3.org/2001/XMLSchema-instance" xsi:noNamespaceSchemaLocation="http://sumo.dlr.de/xsd/routes_file.xsd">
    <route edges="gneE3 gneE0 gneE1 gneE2 gneE3 gneE0 gneE1 gneE2 gneE3 gneE0" color="yellow" id="route_0"/>
    <trip id="vehicle_0" depart="0.00" color="red" from="gneE3" to="gneE0" via="gneE2 gneE1"/>
</routes>
