<?xml version="1.0" encoding="UTF-8"?>

<!-- generated on 2021-10-20 10:35:47 by Eclipse SUMO netedit Version 1.10.0
<configuration xmlns:xsi="http://www.w3.org/2001/XMLSchema-instance" xsi:noNamespaceSchemaLocation="http://sumo.dlr.de/xsd/netconvertConfiguration.xsd">

    <output>
        <output-file value="C:\Users\com\Desktop\SUMO\vec_test1\network.net.xml"/>
    </output>

    <processing>
        <offset.disable-normalization value="true"/>
    </processing>

    <junctions>
        <no-turnarounds value="true"/>
    </junctions>

    <netedit>
        <route-files value="C:\Users\com\Desktop\SUMO\vec_test1\route.rou.xml"/>
    </netedit>

    <report>
        <aggregate-warnings value="5"/>
    </report>

</configuration>
-->

<routes xmlns:xsi="http://www.w3.org/2001/XMLSchema-instance" xsi:noNamespaceSchemaLocation="http://sumo.dlr.de/xsd/routes_file.xsd">
	<vType accel="1.0" decel="5.0" id="Car" length="2.0" maxSpeed="120.0" sigma="0.0" />
	
    <trip id="v1" type="Car" departLane="0" depart="1" from="gneE0" to="gneE8" via="gneE1 gneE2 gneE3 gneE4 gneE5 gneE6 gneE7"/>
	<trip id="v2" type="Car" departLane="1" depart="2" from="gneE0" to="gneE8" via="gneE1 gneE2 gneE3 gneE4 gneE5 gneE6 gneE7"/>
	<trip id="v3" type="Car" departLane="2" depart="3" from="gneE0" to="gneE8" via="gneE1 gneE2 gneE3 gneE4 gneE5 gneE6 gneE7"/>
	<trip id="v4" type="Car" departLane="3" depart="4" from="gneE0" to="gneE8" via="gneE1 gneE2 gneE3 gneE4 gneE5 gneE6 gneE7"/>
	
</routes>
